193
 CUBE FILE written by FHI-AIMS
 C   12.765871   11.481378   13.027537
 C   11.468190   10.820968   12.553383
 C   11.709835    9.494655   12.140488
 C   13.124342    9.193334   12.335268
 C   13.776307   10.352879   12.802883
 C   13.056228   12.809074   12.320086
 C   13.132419   13.859756   13.260077
 C   12.955040   13.310801   14.599064
 C   12.714249   11.925858   14.496000
 C   13.154870   13.053727   10.958978
 C   13.313852   14.380656   10.506661
 C   13.391042   15.426011   11.446082
 C   13.304686   15.172881   12.812104
 C   13.857211    8.011670   12.171496
 C   15.213378    7.996724   12.482452
 C   15.866416    9.155430   12.946568
 C   15.134323   10.349240   13.086146
 C   10.201998   11.378746   12.491611
 C    9.132313   10.612032   11.989167
 C    9.375977    9.289816   11.563589
 C   10.650073    8.731458   11.639573
 C   12.983849   13.905867   15.863710
 C   12.759038   13.127687   16.996099
 C   12.498070   11.746000   16.894829
 C   12.486565   11.144067   15.617226
 N   13.349323   14.674715    9.121119
 N   17.249889    9.130812   13.272155
 N    7.825829   11.162860   11.951859
 N   12.291440   10.978761   18.065693
 C   12.926333   11.402975   19.266439
 C    7.456401   12.052620   13.000278
 C   11.350108    9.919330   18.123665
 C    6.961304   10.986603   10.846687
 C   14.069500   13.867524    8.206905
 C   12.738737   15.868716    8.654246
 C   17.825546    8.034038   13.953522
 C   18.096785   10.133512   12.724360
 C   19.170519    7.686551   13.767467
 C   19.752960    6.630076   14.472630
 C   18.991917    5.884315   15.378078
 C   17.646152    6.224808   15.575031
 C   17.075966    7.285013   14.884471
 C   13.638568   13.731426    6.881566
 C   14.369432   12.985277    5.952114
 C   15.551389   12.349598    6.343523
 C   15.990600   12.484468    7.668946
 C   15.265306   13.229433    8.585279
 C   13.528623   16.901079    8.073820
 C   12.956348   18.095709    7.644215
 C   11.580288   18.307606    7.816683
 C   10.780993   17.321741    8.393006
 C   11.358334   16.106215    8.791224
 C   18.843472   11.026860   13.515141
 C   19.739964   11.936341   12.929086
 C   19.887945   11.970201   11.544679
 C   19.160994   11.091500   10.726437
 C   18.293648   10.175383   11.314809
 C    7.295013   11.611312   14.326657
 C    7.078048   12.518492   15.376348
 C    6.983676   13.879762   15.099205
 C    7.097577   14.351264   13.782217
 C    7.345229   13.449510   12.751060
 C    7.442587   10.671529    9.567285
 C    6.575906   10.513223    8.483105
 C    5.197537   10.685616    8.651133
 C    4.707443   11.019689    9.920395
 C    5.571855   11.161879   10.997646
 C   10.224813    9.880527   17.277493
 C    9.302050    8.848846   17.362854
 C    9.457834    7.824714   18.308069
 C   10.556265    7.861352   19.171902
 C   11.490464    8.897177   19.071514
 C   14.322645   11.349376   19.439438
 C   14.934891   11.895350   20.581223
 C   14.150769   12.466721   21.578924
 C   12.752359   12.502257   21.456699
 C   12.155006   11.990066   20.309015
 H   12.298578   10.074925   15.518802
 H   10.027087   12.404280   12.816431
 H    8.551142    8.697108   11.169473
 H   10.806482    7.701924   11.314605
 H   13.377845    7.103715   11.802770
 H   15.792231    7.082855   12.356631
 H   13.171407   14.974780   15.974957
 H   12.778033   13.589573   17.982023
 H   13.365525   16.000807   13.519701
 H   13.514853   16.447252   11.087478
 H   15.631177   11.251674   13.440351
 H   13.081622   12.238867   10.238117
 O    8.487679    6.851943   18.310698
 C    8.627448    5.798357   19.253035
 O    4.261377   10.557178    7.654039
 C    4.735213   10.229514    6.355598
 O   19.461164    4.823919   16.114399
 O   16.346357   11.590360    5.519991
 C   15.927421   11.441433    4.170288
 C   20.821579    4.458471   15.931027
 H   17.057989    5.649425   16.289881
 H   16.030449    7.534969   15.059881
 H   12.724807   14.231464    6.561223
 H   20.802433    6.400502   14.298660
 H   19.778770    8.255154   13.065497
 H   16.930817   12.018164    7.960542
 H   15.636262   13.339784    9.603094
 H   12.330301    8.918417   19.765165
 H   10.705853    7.091727   19.926493
 H    8.438163    8.840267   16.699505
 H   10.061425   10.671818   16.548426
 H    6.996382   10.268052    7.509585
 H    8.512735   10.552831    9.407060
 H    3.634442   11.160416   10.049075
 H    5.169820   11.434103   11.972775
 H    5.255928    9.257771    6.346143
 H    5.414466   11.004630    5.963599
 H    3.848100   10.170483    5.716409
 H   15.879136   12.412913    3.651197
 H   14.943507   10.948743    4.103146
 H   16.681301   10.810912    3.687623
 H   20.997221    3.605054   16.594311
 H   21.503380    5.279844   16.207296
 H   21.024418    4.158154   14.889838
 H    8.606983    6.174675   20.289450
 H    9.560990    5.233338   19.095028
 H    7.771644    5.134105   19.093048
 H    7.026386   15.420896   13.606490
 O    7.535441   13.823523   11.456315
 H    6.974843   12.112335   16.378605
 O    7.407916   10.301806   14.716940
 O   15.197424   10.842463   18.517826
 H   16.016739   11.825114   20.651758
 H   12.173820   12.961072   22.253973
 O   10.813651   12.040751   20.074303
 H   20.286098   12.599176   13.594411
 O   18.847567   11.022991   14.886077
 H   19.318357   11.130071    9.651718
 O   17.608885    9.229330   10.615099
 O   10.509978   15.209958    9.397000
 H    9.710728   17.444014    8.535954
 H   13.550496   18.891106    7.202295
 O   14.862910   16.639587    8.002181
 O    6.766691   14.843200   16.045252
 C    6.690244   14.421955   17.403484
 O   11.117606   19.518755    7.378263
 C    9.729507   19.788462    7.541472
 O   20.720913   12.829140   10.880848
 C   21.489586   13.734403   11.665954
 O   14.647310   13.012830   22.730961
 C   16.062199   13.031611   22.891161
 H    6.545695   15.334326   17.991041
 H    7.619219   13.922692   17.721422
 H    5.838407   13.743141   17.567940
 H   16.247833   13.528266   23.848803
 H   16.550844   13.598269   22.083017
 H   16.477940   12.011967   22.921480
 H   22.081566   14.318890   10.954296
 H   22.165558   13.199588   12.351963
 H   20.844240   14.410972   12.248122
 H    9.110373   19.070730    6.980178
 H    9.571031   20.794945    7.141294
 H    9.436958   19.766729    8.603243
 C    9.983911   12.607668   21.081253
 C   17.596357   11.097242   15.584219
 H   14.000170   12.908238    4.931457
 C   15.706468   17.627245    7.420638
 C    7.469899   15.215213   11.151979
 H    7.663223   15.292875   10.078251
 H    8.242043   15.779776   11.696215
 H    6.474621   15.626143   11.383010
 H    8.960756   12.530681   20.699427
 H   10.231647   13.666374   21.259712
 H   10.062889   12.051644   22.028360
 H   17.855030   11.235653   16.639381
 H   17.001371   10.183576   15.470492
 H   17.011543   11.964557   15.242428
 H   15.676809   18.569437    7.990764
 H   15.429685   17.826862    6.373449
 H   16.717773   17.210073    7.457028
 C   14.891868    9.594049   17.874781
 C   17.849569    9.122411    9.215915
 C   10.354555   13.931409    8.761210
 C    6.685472    9.300130   13.985653
 H   17.252970    8.268806    8.878773
 H   18.914604    8.936002    9.005916
 H   17.521976   10.023823    8.677292
 H    6.556173    8.462316   14.681566
 H    7.240087    8.956937   13.104242
 H    5.697970    9.672849   13.678630
 H    9.616172   13.388025    9.360666
 H    9.974473   14.059693    7.734557
 H   11.294285   13.365411    8.737472
 H   15.861041    9.148004   17.620804
 H   14.307309    9.741794   16.958431
 H   14.350421    8.920916   18.552931
